<?xml version="1.0" encoding="UTF-8"?>

<!-- generated on 2023-01-28 21:06:19 by Eclipse SUMO polyconvert Version 1.14.1
<configuration xmlns:xsi="http://www.w3.org/2001/XMLSchema-instance" xsi:noNamespaceSchemaLocation="http://sumo.dlr.de/xsd/polyconvertConfiguration.xsd">

    <input>
        <net-file value="osm.net.xml"/>
        <osm-files value="osm_bbox.osm.xml.gz"/>
        <osm.keep-full-type value="true"/>
        <type-file value="C:\Program%20Files%20(x86)\Eclipse\Sumo\data\typemap\osmPolyconvert.typ.xml"/>
    </input>

    <output>
        <output-file value="osm.poly.xml"/>
    </output>

    <report>
        <verbose value="true"/>
    </report>

</configuration>
-->

<additional xmlns:xsi="http://www.w3.org/2001/XMLSchema-instance" xsi:noNamespaceSchemaLocation="http://sumo.dlr.de/xsd/additional_file.xsd">
    <location netOffset="-399192.91,-5809020.05" convBoundary="-4243.64,-3113.96,6202.80,4275.99" origBoundary="13.453860,52.394122,13.609158,52.459757" projParameter="+proj=utm +zone=33 +ellps=WGS84 +datum=WGS84 +units=m +no_defs"/>

    <poly id="1000328781" type="amenity.parking" color="184,184,179" fill="1" layer="-1.00" shape="1807.137577,357.296812 1805.445388,358.721737 1794.845825,358.278801 1793.582232,356.668636 1807.137577,357.296812"/>
    <poly id="1000328782" type="amenity.parking" color="184,184,179" fill="1" layer="-1.00" shape="1836.446443,361.312932 1835.119467,362.296551 1824.488331,360.285325 1823.730352,358.787362 1836.446443,361.312932"/>
    <poly id="1000328783" type="amenity.parking" color="184,184,179" fill="1" layer="-1.00" shape="1851.313874,365.286192 1850.235779,366.131275 1839.773006,363.360011 1839.337282,361.989077 1851.313874,365.286192"/>
    <poly id="1000328790" type="amenity.parking" color="184,184,179" fill="1" layer="-1.00" shape="1833.917889,345.864382 1834.470547,347.299721 1821.703228,345.609688 1822.657224,344.344285 1833.917889,345.864382"/>
    <poly id="1000328791" type="amenity.parking" color="184,184,179" fill="1" layer="-1.00" shape="1849.022015,348.753581 1849.238148,350.028797 1836.508661,347.514590 1837.410507,346.361506 1849.022015,348.753581"/>
    <poly id="1000328792" type="amenity.parking" color="184,184,179" fill="1" layer="-1.00" shape="1819.069862,343.871333 1819.629324,345.306533 1806.950004,344.271240 1807.904221,343.016956 1819.069862,343.871333"/>
    <poly id="1000328793" type="amenity.parking" color="184,184,179" fill="1" layer="-1.00" shape="1804.018363,342.583408 1804.577829,344.018607 1791.900589,343.762179 1792.848976,342.218715 1804.018363,342.583408"/>
    <poly id="1000328794" type="amenity.parking" color="184,184,179" fill="1" layer="-1.00" shape="1788.958705,342.241462 1790.017431,343.811247 1776.921923,344.063986 1777.580481,342.314952 1788.958705,342.241462"/>
    <poly id="1000328795" type="amenity.parking" color="184,184,179" fill="1" layer="-1.00" shape="1773.944694,342.477230 1774.928633,344.048519 1761.701774,344.871406 1762.360326,343.122370 1773.944694,342.477230"/>
    <poly id="1000328796" type="amenity.parking" color="184,184,179" fill="1" layer="-1.00" shape="1759.371810,343.338374 1760.355755,344.909660 1747.138613,345.877038 1747.723713,344.196241 1759.371810,343.338374"/>
    <poly id="1000328797" type="amenity.parking" color="184,184,179" fill="1" layer="-1.00" shape="1744.021880,344.793813 1745.077706,346.219000 1731.938876,347.696669 1732.523971,346.015870 1744.021880,344.793813"/>
    <poly id="1000328798" type="amenity.parking" color="184,184,179" fill="1" layer="-1.00" shape="1729.035831,346.753792 1730.098460,348.178839 1716.952615,349.645563 1717.544503,347.964624 1729.035831,346.753792"/>
    <poly id="1000328799" type="amenity.parking" color="184,184,179" fill="1" layer="-1.00" shape="1714.532159,348.348037 1715.595016,349.784203 1702.449178,351.250965 1703.034263,349.570162 1714.532159,348.348037"/>
    <poly id="1000328800" type="amenity.parking" color="184,184,179" fill="1" layer="-1.00" shape="1699.468198,350.153904 1700.530835,351.578945 1687.385005,353.045747 1687.976883,351.364805 1699.468198,350.153904"/>
    <poly id="1000328801" type="amenity.parking" color="184,184,179" fill="1" layer="-1.00" shape="1684.685999,351.764981 1685.741841,353.190155 1672.602818,354.656860 1673.187892,352.976054 1684.685999,351.764981"/>
    <poly id="1000328802" type="amenity.parking" color="184,184,179" fill="1" layer="-1.00" shape="1669.618019,353.370740 1670.673865,354.795912 1657.535073,356.273780 1658.120142,354.592971 1669.618019,353.370740"/>
    <poly id="1000328803" type="amenity.parking" color="184,184,179" fill="1" layer="-1.00" shape="1639.854467,356.496998 1640.917345,357.933148 1627.771545,359.400110 1628.363402,357.719161 1639.854467,356.496998"/>
    <poly id="1000328804" type="amenity.parking" color="184,184,179" fill="1" layer="-1.00" shape="1610.107175,360.090429 1611.163262,361.526711 1598.024277,362.993616 1598.609325,361.312800 1610.107175,360.090429"/>
    <poly id="1000328805" type="amenity.parking" color="184,184,179" fill="1" layer="-1.00" shape="1594.946294,361.809562 1596.002160,363.234718 1582.863183,364.701663 1583.448225,363.020846 1594.946294,361.809562"/>
    <poly id="1000328806" type="amenity.parking" color="184,184,179" fill="1" layer="-1.00" shape="1625.076117,358.297331 1626.131976,359.722493 1617.955784,360.722010 1618.636027,359.039275 1625.076117,358.297331"/>
    <poly id="1000328807" type="amenity.parking" color="184,184,179" fill="1" layer="-1.00" shape="1580.162134,363.320854 1581.218004,364.746007 1568.079034,366.212992 1568.664071,364.532173 1580.162134,363.320854"/>
    <poly id="1000328808" type="amenity.parking" color="184,184,179" fill="1" layer="-1.00" shape="1565.471986,365.108461 1566.527860,366.533610 1553.389123,368.011757 1553.974155,366.330936 1565.471986,365.108461"/>
    <poly id="1000328809" type="amenity.parking" color="184,184,179" fill="1" layer="-1.00" shape="1550.592878,366.632887 1551.648757,368.058033 1538.509802,369.525098 1539.094828,367.844274 1550.592878,366.632887"/>
    <poly id="1000328810" type="amenity.parking" color="184,184,179" fill="1" layer="-1.00" shape="1535.521378,368.061104 1536.577262,369.486247 1523.438314,370.953352 1524.023335,369.272527 1535.521378,368.061104"/>
    <poly id="1000328811" type="amenity.parking" color="184,184,179" fill="1" layer="-1.00" shape="1520.453482,369.667322 1521.509369,371.092462 1508.370653,372.570730 1508.955669,370.889903 1520.453482,369.667322"/>
    <poly id="1000328812" type="amenity.parking" color="184,184,179" fill="1" layer="-1.00" shape="1505.860580,371.553283 1506.916471,372.978420 1493.777764,374.456727 1494.362775,372.775898 1505.860580,371.553283"/>
    <poly id="1000328813" type="amenity.parking" color="184,184,179" fill="1" layer="-1.00" shape="1491.441825,372.968447 1492.504520,374.393444 1479.365819,375.871789 1479.950825,374.190959 1491.441825,372.968447"/>
    <poly id="1000328814" type="amenity.parking" color="184,184,179" fill="1" layer="-1.00" shape="1476.004046,374.782558 1477.066744,376.207552 1463.927827,377.674816 1464.512828,375.993984 1476.004046,374.782558"/>
    <poly id="1000328815" type="amenity.parking" color="184,184,179" fill="1" layer="-1.00" shape="1461.128584,376.485211 1462.184487,377.910338 1449.045578,379.377642 1449.630573,377.696808 1461.128584,376.485211"/>
    <poly id="1000328816" type="amenity.parking" color="184,184,179" fill="1" layer="-1.00" shape="1445.963743,378.004605 1447.026449,379.429591 1433.887547,380.896937 1434.472762,379.227223 1445.963743,378.004605"/>
    <poly id="1000328817" type="amenity.parking" color="184,184,179" fill="1" layer="-1.00" shape="1431.375887,379.801673 1432.431799,381.226794 1419.292904,382.694178 1419.877889,381.013341 1431.375887,379.801673"/>
    <poly id="1000328818" type="amenity.parking" color="184,184,179" fill="1" layer="-1.00" shape="1416.863782,381.307958 1417.926497,382.732939 1404.780811,384.200500 1405.372590,382.519522 1416.863782,381.307958"/>
    <poly id="1000328819" type="amenity.parking" color="184,184,179" fill="1" layer="-1.00" shape="1401.610576,382.829277 1402.666496,384.254392 1389.527841,385.732978 1390.112816,384.052137 1401.610576,382.829277"/>
    <poly id="1000328820" type="amenity.parking" color="184,184,179" fill="1" layer="-1.00" shape="1386.645819,384.823257 1387.701743,386.248369 1374.562872,387.715873 1375.147841,386.035030 1386.645819,384.823257"/>
    <poly id="1000328821" type="amenity.parking" color="184,184,179" fill="1" layer="-1.00" shape="1371.854973,386.335315 1372.917700,387.760286 1359.772037,389.227968 1360.357001,387.547123 1371.854973,386.335315"/>
    <poly id="1000328822" type="amenity.parking" color="184,184,179" fill="1" layer="-1.00" shape="1356.882583,387.951233 1357.938516,389.376338 1344.799659,390.843922 1345.384617,389.163075 1356.882583,387.951233"/>
    <poly id="1000328823" type="amenity.parking" color="184,184,179" fill="1" layer="-1.00" shape="1341.724599,389.470811 1342.780535,390.895914 1330.185934,391.696045 1330.686325,390.206062 1341.724599,389.470811"/>
    <poly id="1000328824" type="amenity.parking" color="184,184,179" fill="1" layer="-1.00" shape="1326.976012,390.381307 1327.931766,391.897448 1315.339014,392.452792 1316.074895,390.835646 1326.976012,390.381307"/>
    <poly id="1000328825" type="amenity.parking" color="184,184,179" fill="1" layer="-1.00" shape="1236.829042,395.378051 1237.791623,396.894037 1225.199112,397.460735 1225.927938,395.832591 1236.829042,395.378051"/>
    <poly id="1000328826" type="amenity.parking" color="184,184,179" fill="1" layer="-1.00" shape="1222.123982,396.421502 1223.086793,397.948607 1210.494059,398.504220 1211.229679,396.875936 1222.123982,396.421502"/>
    <poly id="1000328827" type="amenity.parking" color="184,184,179" fill="1" layer="-1.00" shape="1206.857790,397.298341 1207.820380,398.814321 1195.227874,399.381095 1195.956690,397.752946 1206.857790,397.298341"/>
    <poly id="1000328828" type="amenity.parking" color="184,184,179" fill="1" layer="-1.00" shape="1208.288461,412.512968 1207.004370,414.263636 1196.658582,414.595719 1195.515832,412.916492 1208.288461,412.512968"/>
    <poly id="1000328829" type="amenity.parking" color="184,184,179" fill="1" layer="-1.00" shape="1223.097824,412.591161 1221.905084,414.150819 1211.080689,414.025248 1209.931145,412.346155 1223.097824,412.591161"/>
    <poly id="1000328830" type="amenity.parking" color="184,184,179" fill="1" layer="-1.00" shape="1238.017774,412.756172 1236.733672,414.506832 1226.381086,414.838990 1225.238121,413.148634 1238.017774,412.756172"/>
    <poly id="1000328831" type="amenity.parking" color="184,184,179" fill="1" layer="-1.00" shape="1329.111936,404.836191 1327.919791,406.762992 1318.155428,407.928681 1316.726930,406.244085 1329.111936,404.836191"/>
    <poly id="1000328832" type="amenity.parking" color="184,184,179" fill="1" layer="-1.00" shape="1343.902446,403.646684 1342.900896,405.580750 1332.665136,406.644684 1331.236869,404.971206 1343.902446,403.646684"/>
    <poly id="1000328833" type="amenity.parking" color="184,184,179" fill="1" layer="-1.00" shape="1358.969973,402.028800 1358.065405,404.049915 1347.358924,405.045456 1345.930436,403.360851 1358.969973,402.028800"/>
    <poly id="1000328834" type="amenity.parking" color="184,184,179" fill="1" layer="-1.00" shape="1374.267778,400.361797 1373.363204,402.382908 1362.656717,403.378416 1361.228234,401.693807 1374.267778,400.361797"/>
    <poly id="1000328835" type="amenity.parking" color="184,184,179" fill="1" layer="-1.00" shape="1388.769193,398.666445 1387.864613,400.687554 1377.158120,401.683031 1375.729642,399.998418 1388.769193,398.666445"/>
    <poly id="1000328836" type="amenity.parking" color="184,184,179" fill="1" layer="-1.00" shape="1403.743582,397.150725 1402.838996,399.171831 1392.132273,400.156152 1390.704024,398.482657 1403.743582,397.150725"/>
    <poly id="1000328837" type="amenity.parking" color="184,184,179" fill="1" layer="-1.00" shape="1418.722754,395.534812 1417.818161,397.555916 1407.104858,398.551464 1405.676390,396.866842 1418.722754,395.534812"/>
    <poly id="1000328838" type="amenity.parking" color="184,184,179" fill="1" layer="-1.00" shape="1433.499136,393.644879 1432.594537,395.665979 1421.888027,396.661358 1420.459563,394.976732 1433.499136,393.644879"/>
    <poly id="1000328839" type="amenity.parking" color="184,184,179" fill="1" layer="-1.00" shape="1448.469727,391.940218 1447.565121,393.961316 1436.858606,394.956661 1435.430147,393.272031 1448.469727,391.940218"/>
    <poly id="1000328840" type="amenity.parking" color="184,184,179" fill="1" layer="-1.00" shape="1463.165384,390.430315 1462.260772,392.451409 1451.554027,393.435601 1450.125797,391.762089 1463.165384,390.430315"/>
    <poly id="1000328841" type="amenity.parking" color="184,184,179" fill="1" layer="-1.00" shape="1478.230956,388.712698 1477.326562,390.744912 1466.613012,391.729208 1465.191586,390.055554 1478.230956,388.712698"/>
    <poly id="1000328842" type="amenity.parking" color="184,184,179" fill="1" layer="-1.00" shape="1493.011197,387.012021 1492.106797,389.044232 1481.400040,390.028359 1479.971820,388.354838 1493.011197,387.012021"/>
    <poly id="1000328843" type="amenity.parking" color="184,184,179" fill="1" layer="-1.00" shape="1508.179840,385.681849 1507.275209,387.702935 1496.568672,388.698150 1495.140232,387.013503 1508.179840,385.681849"/>
    <poly id="1000328844" type="amenity.parking" color="184,184,179" fill="1" layer="-1.00" shape="1523.251280,384.253547 1522.346642,386.274630 1511.640100,387.269813 1510.211665,385.585161 1523.251280,384.253547"/>
    <poly id="1000328845" type="amenity.parking" color="184,184,179" fill="1" layer="-1.00" shape="1538.221922,382.549160 1537.317278,384.570240 1526.610730,385.565390 1525.182300,383.880734 1538.221922,382.549160"/>
    <poly id="1000328846" type="amenity.parking" color="184,184,179" fill="1" layer="-1.00" shape="1552.620605,380.478062 1551.715955,382.499140 1541.009401,383.494259 1539.581200,381.820721 1552.620605,380.478062"/>
    <poly id="1000328847" type="amenity.parking" color="184,184,179" fill="1" layer="-1.00" shape="1567.593063,378.862742 1566.688631,380.894940 1555.981846,381.878903 1554.553650,380.205361 1567.593063,378.862742"/>
    <poly id="1000328848" type="amenity.parking" color="184,184,179" fill="1" layer="-1.00" shape="1582.578167,377.536507 1581.666705,379.557717 1570.960140,380.552770 1569.531724,378.868101 1582.578167,377.536507"/>
    <poly id="1000328849" type="amenity.parking" color="184,184,179" fill="1" layer="-1.00" shape="1597.732422,375.828596 1596.827752,377.849665 1586.120957,378.833563 1584.692771,377.160012 1597.732422,375.828596"/>
    <poly id="1000328850" type="amenity.parking" color="184,184,179" fill="1" layer="-1.00" shape="1612.519531,374.128141 1611.614855,376.149208 1600.901255,377.133211 1599.479872,375.459519 1612.519531,374.128141"/>
    <poly id="1000328851" type="amenity.parking" color="184,184,179" fill="1" layer="-1.00" shape="1627.391222,372.236871 1626.676916,374.254093 1620.555959,374.967342 1619.127559,373.282659 1627.391222,372.236871"/>
    <poly id="1000328852" type="amenity.parking" color="184,184,179" fill="1" layer="-1.00" shape="1701.787874,363.993240 1700.876584,366.025549 1690.169750,367.009219 1688.741597,365.335639 1701.787874,363.993240"/>
    <poly id="1000328853" type="amenity.parking" color="184,184,179" fill="1" layer="-1.00" shape="1716.762434,362.478475 1715.857714,364.499522 1705.144300,365.494419 1703.722726,363.809575 1716.762434,362.478475"/>
    <poly id="1000328854" type="amenity.parking" color="184,184,179" fill="1" layer="-1.00" shape="1731.359236,360.782218 1730.454509,362.803262 1719.741089,363.798127 1718.312721,362.113416 1731.359236,360.782218"/>
    <poly id="1000328855" type="amenity.parking" color="184,184,179" fill="1" layer="-1.00" shape="1746.422202,359.265762 1745.517469,361.286803 1734.810619,362.270376 1733.382480,360.596783 1746.422202,359.265762"/>
    <poly id="1000328856" type="amenity.parking" color="184,184,179" fill="1" layer="-1.00" shape="1761.585147,357.647197 1760.680407,359.668236 1749.973776,360.662898 1748.545417,358.978178 1761.585147,357.647197"/>
    <poly id="1000328857" type="amenity.parking" color="184,184,179" fill="1" layer="-1.00" shape="1776.671738,356.964860 1775.761389,358.707841 1764.761566,359.330071 1763.340236,357.656332 1776.671738,356.964860"/>
    <poly id="1000328858" type="amenity.parking" color="184,184,179" fill="1" layer="-1.00" shape="1791.729413,356.872866 1790.129427,358.485092 1779.442293,358.422262 1778.178470,356.800978 1791.729413,356.872866"/>
    <poly id="1000337057" type="amenity.parking" color="184,184,179" fill="1" layer="-1.00" shape="1193.683450,413.120535 1192.722339,414.697759 1182.221716,415.444700 1181.407123,413.847838 1193.683450,413.120535"/>
    <poly id="1000337058" type="amenity.parking" color="184,184,179" fill="1" layer="-1.00" shape="1179.027394,414.229883 1178.066289,415.807110 1167.732230,416.717607 1166.755807,415.190788 1179.027394,414.229883"/>
    <poly id="1000337059" type="amenity.parking" color="184,184,179" fill="1" layer="-1.00" shape="1164.029776,415.602115 1163.151843,417.255546 1153.065715,418.316821 1152.016527,416.891621 1164.029776,415.602115"/>
    <poly id="1000337060" type="amenity.parking" color="184,184,179" fill="1" layer="-1.00" shape="1148.997008,417.253275 1148.119306,418.917831 1138.039983,419.978999 1136.983766,418.542818 1148.997008,417.253275"/>
    <poly id="1000337061" type="amenity.parking" color="184,184,179" fill="1" layer="-1.00" shape="1133.842767,418.951451 1132.965071,420.616010 1122.885753,421.677209 1121.829532,420.241031 1133.842767,418.951451"/>
    <poly id="1000337062" type="amenity.parking" color="184,184,179" fill="1" layer="-1.00" shape="1119.268265,420.726929 1118.390348,422.380368 1108.304237,423.441735 1107.248238,422.016682 1119.268265,420.726929"/>
    <poly id="1000337063" type="amenity.parking" color="184,184,179" fill="1" layer="-1.00" shape="1104.275415,422.332909 1103.397730,423.997473 1093.311625,425.058872 1092.255395,423.622700 1104.275415,422.332909"/>
    <poly id="1000337064" type="amenity.parking" color="184,184,179" fill="1" layer="-1.00" shape="1089.279415,423.783225 1088.401735,425.447792 1078.322434,426.509083 1077.266200,425.072915 1089.279415,423.783225"/>
    <poly id="1000337065" type="amenity.parking" color="184,184,179" fill="1" layer="-1.00" shape="1074.534961,425.562285 1073.664085,427.226716 1063.577991,428.288176 1062.521754,426.852010 1074.534961,425.562285"/>
    <poly id="1000337066" type="amenity.parking" color="184,184,179" fill="1" layer="-1.00" shape="1059.712340,427.176074 1058.834445,428.829524 1048.748582,429.902137 1047.692340,428.465974 1059.712340,427.176074"/>
    <poly id="1000337067" type="amenity.parking" color="184,184,179" fill="1" layer="-1.00" shape="1044.476562,428.876183 1043.598672,430.529636 1033.512815,431.602280 1032.456570,430.166120 1044.476562,428.876183"/>
    <poly id="1000337068" type="amenity.parking" color="184,184,179" fill="1" layer="-1.00" shape="1029.568732,430.647568 1028.691073,432.312146 1018.611795,433.373560 1017.555545,431.937404 1029.568732,430.647568"/>
    <poly id="1000337069" type="amenity.parking" color="184,184,179" fill="1" layer="-1.00" shape="1014.408012,432.023572 1013.530358,433.688152 1003.451085,434.749597 1002.394831,433.313444 1014.408012,432.023572"/>
    <poly id="1000337070" type="amenity.parking" color="184,184,179" fill="1" layer="-1.00" shape="1000.078122,433.783311 999.200474,435.447894 989.114407,436.509507 988.058149,435.073357 1000.078122,433.783311"/>
    <poly id="1000337071" type="amenity.parking" color="184,184,179" fill="1" layer="-1.00" shape="985.330333,435.395806 984.459489,437.060254 974.373429,438.121897 973.317167,436.685751 985.330333,435.395806"/>
    <poly id="1000337072" type="amenity.parking" color="184,184,179" fill="1" layer="-1.00" shape="970.256196,437.014976 969.385357,438.679427 959.299302,439.741101 958.243036,438.304957 970.256196,437.014976"/>
    <poly id="1000337073" type="amenity.parking" color="184,184,179" fill="1" layer="-1.00" shape="955.272038,438.710252 954.394405,440.374843 944.308356,441.436548 943.252085,440.000408 955.272038,438.710252"/>
    <poly id="1000337074" type="amenity.parking" color="184,184,179" fill="1" layer="-1.00" shape="940.279507,440.327856 939.401654,441.981328 929.315836,443.054186 928.259561,441.618049 940.279507,440.327856"/>
    <poly id="1000337075" type="amenity.parking" color="184,184,179" fill="1" layer="-1.00" shape="925.373547,442.188536 924.495699,443.842010 914.416686,444.914760 913.360408,443.478627 925.373547,442.188536"/>
    <poly id="1000337076" type="amenity.parking" color="184,184,179" fill="1" layer="-1.00" shape="910.625575,443.790134 909.754757,445.454595 899.668725,446.516392 898.612442,445.080261 910.625575,443.790134"/>
    <poly id="1000337077" type="amenity.parking" color="184,184,179" fill="1" layer="-1.00" shape="896.034925,444.765479 895.171785,447.141900 885.102734,448.704085 883.878053,447.349269 896.034925,444.765479"/>
    <poly id="1000337078" type="amenity.parking" color="184,184,179" fill="1" layer="-1.00" shape="880.910458,447.921441 879.951262,449.587705 870.213326,451.376850 869.325189,450.182095 880.910458,447.921441"/>
    <poly id="1000337079" type="amenity.parking" color="184,184,179" fill="1" layer="-1.00" shape="866.135941,450.892304 865.355337,452.643953 855.851294,454.561892 854.719984,453.116169 866.135941,450.892304"/>
    <poly id="1000337080" type="amenity.parking" color="184,184,179" fill="1" layer="-1.00" shape="851.938232,453.795847 850.965449,455.462393 840.711483,457.295474 839.493817,455.951652 851.938232,453.795847"/>
    <poly id="1000337081" type="amenity.parking" color="184,184,179" fill="1" layer="-1.00" shape="837.087827,456.712708 836.307234,458.464362 826.044895,460.219757 824.826999,458.864817 837.087827,456.712708"/>
    <poly id="1000337082" type="amenity.parking" color="184,184,179" fill="1" layer="-1.00" shape="823.519757,459.136202 822.739170,460.887858 817.685622,461.903072 816.537073,460.613483 823.519757,459.136202"/>
    <poly id="1000337083" type="amenity.parking" color="184,184,179" fill="1" layer="-1.00" shape="763.276011,467.850565 762.333853,469.683408 751.573649,471.037405 750.517327,469.601306 763.276011,467.850565"/>
    <poly id="1000337084" type="amenity.parking" color="184,184,179" fill="1" layer="-1.00" shape="748.371769,469.789638 747.429844,471.633607 736.676220,472.976376 735.619894,471.540279 748.371769,469.789638"/>
    <poly id="1000337085" type="amenity.parking" color="184,184,179" fill="1" layer="-1.00" shape="733.481132,472.062283 732.538986,473.895132 721.778797,475.249194 720.722467,473.813101 733.481132,472.062283"/>
    <poly id="1000337086" type="amenity.parking" color="184,184,179" fill="1" layer="-1.00" shape="718.493738,473.925254 717.551598,475.758105 706.791190,477.101079 705.735082,475.676111 718.493738,473.925254"/>
    <poly id="1000337087" type="amenity.parking" color="184,184,179" fill="1" layer="-1.00" shape="703.266572,476.037943 702.324439,477.870798 691.564038,479.213804 690.507700,477.777718 703.266572,476.037943"/>
    <poly id="1000337088" type="amenity.parking" color="184,184,179" fill="1" layer="-1.00" shape="688.442149,477.886559 687.500248,479.730539 676.739855,481.073578 675.690311,479.637356 688.442149,477.886559"/>
    <poly id="1000337089" type="amenity.parking" color="184,184,179" fill="1" layer="-1.00" shape="567.483610,484.847553 566.102080,486.477990 554.891605,486.762307 553.688136,485.117841 567.483610,484.847553"/>
    <poly id="1000337090" type="amenity.parking" color="184,184,179" fill="1" layer="-1.00" shape="588.986948,485.644056 587.612210,487.274347 571.349808,486.649119 569.711206,485.013525 588.986948,485.644056"/>
    <poly id="1000337091" type="amenity.parking" color="184,184,179" fill="1" layer="-1.00" shape="551.318675,485.333081 549.943949,486.963384 538.961256,487.743795 537.258965,486.320920 551.318675,485.333081"/>
    <poly id="1000337092" type="amenity.parking" color="184,184,179" fill="1" layer="-1.00" shape="534.678290,486.852028 533.303570,488.482335 522.467076,489.760506 521.129442,488.541603 534.678290,486.852028"/>
    <poly id="1000337093" type="amenity.parking" color="184,184,179" fill="1" layer="-1.00" shape="518.523163,489.151129 517.141649,490.781580 506.311962,492.059648 504.974325,490.840749 518.523163,489.151129"/>
    <poly id="1000337094" type="amenity.parking" color="184,184,179" fill="1" layer="-1.00" shape="501.889846,491.348777 500.515138,492.979094 489.685459,494.257198 488.341245,493.049565 501.889846,491.348777"/>
    <poly id="1000337095" type="amenity.parking" color="184,184,179" fill="1" layer="-1.00" shape="459.002193,496.252242 457.627500,497.882571 446.549895,499.010059 445.169178,497.680788 459.002193,496.252242"/>
    <poly id="1000337096" type="amenity.parking" color="184,184,179" fill="1" layer="-1.00" shape="442.400856,498.015495 441.026169,499.645828 429.948343,500.762232 428.567623,499.432966 442.400856,498.015495"/>
    <poly id="1000337097" type="amenity.parking" color="184,184,179" fill="1" layer="-1.00" shape="425.860720,499.777554 424.486039,501.407892 413.408220,502.524333 412.027495,501.195071 425.860720,499.777554"/>
    <poly id="1000337098" type="amenity.parking" color="184,184,179" fill="1" layer="-1.00" shape="409.478318,501.269404 408.103642,502.899746 397.025829,504.016224 395.645100,502.686967 409.478318,501.269404"/>
    <poly id="1000337099" type="amenity.parking" color="184,184,179" fill="1" layer="-1.00" shape="393.110449,503.139322 391.728980,504.769808 380.651174,505.886323 379.270441,504.557071 393.110449,503.139322"/>
    <poly id="1000337100" type="amenity.parking" color="184,184,179" fill="1" layer="-1.00" shape="297.918706,512.796192 296.544070,514.426566 285.466528,515.554418 284.085771,514.225192 297.918706,512.796192"/>
    <poly id="1000337101" type="amenity.parking" color="184,184,179" fill="1" layer="-1.00" shape="282.512016,514.101609 281.137385,515.731988 270.059620,516.848753 268.678859,515.519531 282.512016,514.101609"/>
    <poly id="1000337102" type="amenity.parking" color="184,184,179" fill="1" layer="-1.00" shape="265.396562,515.998375 264.015366,517.640020 252.937608,518.756823 251.556843,517.427606 265.396562,515.998375"/>
    <poly id="1000337104" type="amenity.parking" color="184,184,179" fill="1" layer="-1.00" shape="348.811464,517.853048 350.568788,517.972899 349.665557,530.353234 347.908010,530.222261 348.811464,517.853048"/>
    <poly id="1000337105" type="amenity.parking" color="184,184,179" fill="1" layer="-1.00" shape="357.853049,514.953287 359.644368,515.072447 358.843284,526.794210 357.051741,526.663928 357.853049,514.953287"/>
    <poly id="1000337106" type="amenity.parking" color="184,184,179" fill="1" layer="-1.00" shape="347.662924,532.207841 349.427042,532.327553 348.523819,544.707888 346.759478,544.577054 347.662924,532.207841"/>
    <poly id="1000337107" type="amenity.parking" color="184,184,179" fill="1" layer="-1.00" shape="346.302262,546.500210 348.066602,546.631044 347.163160,559.000258 345.398824,558.869424 346.302262,546.500210"/>
    <poly id="1000337108" type="amenity.parking" color="184,184,179" fill="1" layer="-1.00" shape="345.313550,561.352443 347.071085,561.483416 346.174676,573.863613 344.410346,573.732780 345.313550,561.352443"/>
    <poly id="1000337109" type="amenity.parking" color="184,184,179" fill="1" layer="-1.00" shape="344.456254,575.645651 346.213557,575.765501 345.317155,588.145698 343.552829,588.014866 344.456254,575.645651"/>
    <poly id="1000337110" type="amenity.parking" color="184,184,179" fill="1" layer="-1.00" shape="356.631199,528.052247 358.422514,528.171407 357.628235,539.893032 355.836697,539.762750 356.631199,528.052247"/>
    <poly id="1000337111" type="amenity.parking" color="184,184,179" fill="1" layer="-1.00" shape="355.539924,541.549104 357.331234,541.668263 356.536961,553.389888 354.745655,553.270730 355.539924,541.549104"/>
    <poly id="1000337112" type="amenity.parking" color="184,184,179" fill="1" layer="-1.00" shape="353.182770,573.642462 354.967269,573.761759 354.173012,585.483386 352.381490,585.353106 353.182770,573.642462"/>
    <poly id="1000337113" type="amenity.parking" color="184,184,179" fill="1" layer="-1.00" shape="352.090882,587.773562 353.889202,587.903702 352.776283,602.669459 350.970942,602.528336 352.090882,587.773562"/>
    <poly id="1000337114" type="amenity.parking" color="184,184,179" fill="1" layer="-1.00" shape="342.500952,596.782034 344.259385,596.957494 343.714265,602.565418 341.956061,602.401080 342.500952,596.782034"/>
    <poly id="1000337115" type="amenity.parking" color="184,184,179" fill="1" layer="-1.00" shape="673.155643,462.397999 674.373811,460.425993 685.364964,459.389798 686.589244,461.056124 673.155643,462.397999"/>
    <poly id="1000337116" type="amenity.parking" color="184,184,179" fill="1" layer="-1.00" shape="688.416834,460.952130 689.635009,458.980128 700.619368,457.944106 701.850441,459.610298 688.416834,460.952130"/>
    <poly id="1000337117" type="amenity.parking" color="184,184,179" fill="1" layer="-1.00" shape="703.740583,459.571795 704.958764,457.599797 715.943128,456.563809 717.174197,458.230005 703.740583,459.571795"/>
    <poly id="1000337118" type="amenity.parking" color="184,184,179" fill="1" layer="-1.00" shape="718.494576,458.269873 719.712764,456.297879 730.703932,455.261786 731.934996,456.927985 718.494576,458.269873"/>
    <poly id="1000337119" type="amenity.parking" color="184,184,179" fill="1" layer="-1.00" shape="733.257867,457.090201 734.476060,455.118210 745.460434,454.082288 746.691493,455.748491 733.257867,457.090201"/>