<?xml version="1.0" encoding="UTF-8"?>

<!-- generated on 2023-01-28 21:06:17 by Eclipse SUMO netconvert Version 1.14.1
<configuration xmlns:xsi="http://www.w3.org/2001/XMLSchema-instance" xsi:noNamespaceSchemaLocation="http://sumo.dlr.de/xsd/netconvertConfiguration.xsd">

    <input>
        <type-files value="C:\Program%20Files%20(x86)\Eclipse\Sumo\data\typemap\osmNetconvert.typ.xml"/>
        <osm-files value="osm_bbox.osm.xml.gz"/>
    </input>

    <output>
        <output-file value="osm.net.xml"/>
        <output.street-names value="true"/>
        <output.original-names value="true"/>
        <ptstop-output value="osm_stops.add.xml"/>
        <ptline-output value="osm_ptlines.xml"/>
    </output>

    <projection>
        <proj.utm value="true"/>
    </projection>

    <processing>
        <geometry.remove value="true"/>
        <roundabouts.guess value="true"/>
    </processing>

    <tls_building>
        <tls.discard-simple value="true"/>
        <tls.join value="true"/>
        <tls.guess-signals value="true"/>
        <tls.default-type value="actuated"/>
    </tls_building>

    <ramp_guessing>
        <ramps.guess value="true"/>
    </ramp_guessing>

    <junctions>
        <junctions.join value="true"/>
        <junctions.corner-detail value="5"/>
    </junctions>

    <railway>
        <railway.topology.repair value="true"/>
    </railway>

    <report>
        <verbose value="true"/>
    </report>

</configuration>
-->

<additional xmlns:xsi="http://www.w3.org/2001/XMLSchema-instance" xsi:noNamespaceSchemaLocation="http://sumo.dlr.de/xsd/additional_file.xsd">
    <busStop id="-101338586" name="Ottomar-Geschke-Straße" lane="-11389403#0_0" startPos="210.53" endPos="225.53" friendlyPos="true" lines="N64">
        <access lane="-25042028#0_0" pos="46.76" length="70.67" friendlyPos="1"/>
        <access lane="-26993480_0" pos="0.00" length="115.96" friendlyPos="1"/>
        <access lane="-55376510#2_0" pos="0.00" length="69.77" friendlyPos="1"/>
        <access lane="25042028#0_0" pos="0.00" length="70.72" friendlyPos="1"/>
        <access lane="55376510#2_0" pos="27.59" length="68.93" friendlyPos="1"/>
    </busStop>
    <busStop id="-1383533494" name="Büchnerweg" lane="-1066214689#0_0" startPos="75.80" endPos="90.80" friendlyPos="true" lines="164 162"/>
    <busStop id="-1383533522" name="Friedlander Straße" lane="-31091960#2_0" startPos="9.56" endPos="24.56" friendlyPos="true" lines="165">
        <access lane="-177615723#1_0" pos="0.00" length="49.29" friendlyPos="1"/>
        <access lane="-581877040_0" pos="65.71" length="23.90" friendlyPos="1"/>
        <access lane="1072169592_0" pos="0.00" length="28.58" friendlyPos="1"/>
        <access lane="177615723#1_0" pos="133.12" length="53.75" friendlyPos="1"/>
        <access lane="363443436_0" pos="233.67" length="59.84" friendlyPos="1"/>
    </busStop>
    <busStop id="-1383533578" name="Radickestraße/Nipkowstraße" lane="-137534616_0" startPos="27.36" endPos="42.36" friendlyPos="true" lines="164 162"/>
    <busStop id="-1560223555" name="Am Studio/Köpenicker Straße" lane="-1050686755#3_0" startPos="28.80" endPos="43.80" friendlyPos="true" lines="260"/>
    <busStop id="-1560223790" name="Wilhelm-Ostwald-Straße" lane="-1050686757#2_0" startPos="0.00" endPos="10.60" friendlyPos="true" lines="260"/>
    <busStop id="-1906421953" name="S Adlershof" lane="-679901152#2_0" startPos="0.00" endPos="7.70" friendlyPos="true" lines="N64"/>
    <busStop id="-355914690" name="Oberspreestraße/Bundeswehr" lane="-363443437_0" startPos="40.46" endPos="55.46" friendlyPos="true" lines="165"/>
    <busStop id="-385200818" name="Albert-Einstein-Straße" lane="-314415495#7_0" startPos="22.80" endPos="37.80" friendlyPos="true" lines="260"/>
    <busStop id="-3892451598" name="Marktplatz Adlershof" lane="-178028204#1_0" startPos="16.55" endPos="31.55" friendlyPos="true" lines="N64"/>
    <busStop id="-3892451600" name="Wassermannstraße" lane="-147053824#4_0" startPos="74.62" endPos="89.62" friendlyPos="true" lines="N64"/>
    <busStop id="1383533459" name="Anna-Seghers-Straße" lane="24152326#0_0" startPos="57.47" endPos="72.47" friendlyPos="true" lines="164 162"/>
    <busStop id="1383533461" name="Adlergestell/Glienicker Weg" lane="318210360#0_0" startPos="37.82" endPos="52.82" friendlyPos="true" lines="163 N68"/>
    <busStop id="1383533462" name="Adlergestell/Glienicker Weg" lane="986672064#0_0" startPos="0.00" endPos="7.70" friendlyPos="true" lines="163 N68">
        <access lane="-53529206#0_0" pos="11.91" length="33.18" friendlyPos="1"/>
        <access lane="207086005#1_0" pos="25.88" length="28.07" friendlyPos="1"/>
        <access lane="318210360#0_0" pos="0.00" length="36.93" friendlyPos="1"/>
        <access lane="53529206#0_0" pos="30.18" length="28.38" friendlyPos="1"/>
        <access lane="53529919#0_0" pos="0.00" length="51.91" friendlyPos="1"/>
    </busStop>
    <busStop id="1383533492" name="Büchnerweg" lane="1066214689#0_0" startPos="38.06" endPos="53.06" friendlyPos="true" lines="164 162"/>
    <busStop id="1383533513" name="Freystadter Weg" lane="679714112_0" startPos="0.71" endPos="15.71" friendlyPos="true" lines="165">
        <access lane="-1102346414#0_0" pos="20.77" length="136.49" friendlyPos="1"/>
        <access lane="-142810555#3_0" pos="0.00" length="50.14" friendlyPos="1"/>
        <access lane="-311299992#3_0" pos="0.00" length="124.37" friendlyPos="1"/>
        <access lane="142810555#3_0" pos="111.57" length="45.35" friendlyPos="1"/>
        <access lane="311299992#3_0" pos="59.40" length="129.00" friendlyPos="1"/>
    </busStop>
    <busStop id="1383533514" name="Freystadter Weg" lane="238053689#0_0" startPos="0.00" endPos="9.37" friendlyPos="true" lines="165">
        <access lane="-142810555#3_0" pos="0.00" length="35.52" friendlyPos="1"/>
        <access lane="-311299992#3_0" pos="0.00" length="101.58" friendlyPos="1"/>
        <access lane="142810555#3_0" pos="111.57" length="31.56" friendlyPos="1"/>
        <access lane="311299992#3_0" pos="59.40" length="106.31" friendlyPos="1"/>
        <access lane="581877009_0" pos="47.26" length="136.23" friendlyPos="1"/>
    </busStop>
    <busStop id="1383533572" name="Ottomar-Geschke-Straße" lane="11389403#0_0" startPos="16.54" endPos="31.54" friendlyPos="true" lines="N64">
        <access lane="-25042028#0_0" pos="46.76" length="36.12" friendlyPos="1"/>
        <access lane="-55376510#2_0" pos="0.00" length="103.72" friendlyPos="1"/>
        <access lane="25042028#0_0" pos="0.00" length="36.22" friendlyPos="1"/>
        <access lane="55376510#2_0" pos="27.59" length="103.19" friendlyPos="1"/>
        <access lane="995327704_0" pos="40.71" length="106.87" friendlyPos="1"/>
    </busStop>
    <busStop id="1383533575" name="Radickestraße/Anna-Seghers-Straße" lane="149611526_0" startPos="23.98" endPos="38.98" friendlyPos="true" lines="164 162"/>
    <busStop id="1383533577" name="Radickestraße/Nipkowstraße" lane="137534616_0" startPos="34.86" endPos="49.86" friendlyPos="true" lines="164 162"/>
    <busStop id="1383533594" name="Rudower Straße" lane="1014229941#0_0" startPos="29.35" endPos="44.35" friendlyPos="true" lines="164 162">
        <access lane="-1085132033#5_0" pos="0.00" length="57.88" friendlyPos="1"/>
        <access lane="-283006428#3_0" pos="6.31" length="51.40" friendlyPos="1"/>
        <access lane="-283006428#4_0" pos="0.00" length="56.98" friendlyPos="1"/>
        <access lane="1085132033#5_0" pos="44.29" length="53.09" friendlyPos="1"/>
        <access lane="283006428#3_0" pos="16.50" length="58.02" friendlyPos="1"/>
    </busStop>
    <busStop id="1383533597" name="Anna-Seghers-Straße" lane="166142947_0" startPos="13.87" endPos="28.87" friendlyPos="true" lines="N64"/>
    <busStop id="1383533607" name="S Spindlersfeld" lane="237122662#0_0" startPos="33.54" endPos="48.54" friendlyPos="true" lines="N64 165 N65">
        <access lane="-1093065755_0" pos="0.00" length="39.68" friendlyPos="1"/>
        <access lane="142810574_0" pos="178.53" length="40.17" friendlyPos="1"/>
        <access lane="180797804_0" pos="0.00" length="35.40" friendlyPos="1"/>
        <access lane="204977490#1_0" pos="50.65" length="80.04" friendlyPos="1"/>
        <access lane="70553241#0_0" pos="39.92" length="30.68" friendlyPos="1"/>
    </busStop>
    <busStop id="1560223236" name="Rudower Chaussee/Wegedornstraße" lane="143308587#0_0" startPos="0.00" endPos="7.70" friendlyPos="true" lines="160 162 N60 164"/>
    <busStop id="1656195133" name="S Adlershof" lane="206889086#0_0" startPos="0.00" endPos="9.70" friendlyPos="true" lines="N64 162 163 N60 164 N68"/>
    <busStop id="1862990707" name="Otto-Franke-Straße" lane="153021549#1_0" startPos="31.74" endPos="46.74" friendlyPos="true" lines="163 N68">
        <access lane="-175357593#1_0" pos="16.81" length="26.91" friendlyPos="1"/>
        <access lane="-175357597#2_0" pos="0.00" length="32.84" friendlyPos="1"/>
        <access lane="175357593#1_0" pos="21.24" length="31.71" friendlyPos="1"/>
        <access lane="175357597#2_0" pos="7.97" length="37.49" friendlyPos="1"/>
        <access lane="461514282#1_0" pos="266.98" length="23.53" friendlyPos="1"/>
    </busStop>
    <busStop id="1906421957" name="Marktplatz Adlershof" lane="1072269112_0" startPos="6.18" endPos="21.18" friendlyPos="true" lines="N64"/>
    <busStop id="2391105467" name="S Adlershof/Franz-Ehrlich-Straße" lane="142575672#3_0" startPos="16.01" endPos="23.51" friendlyPos="true"/>
    <busStop id="297194207" name="Glienicker Weg/Nipkowstraße" lane="113575152#8_0" startPos="46.94" endPos="61.94" friendlyPos="true" lines="164 162">
        <access lane="-27087625#0_0" pos="0.00" length="50.42" friendlyPos="1"/>
        <access lane="-27087625#1_0" pos="0.00" length="37.56" friendlyPos="1"/>
        <access lane="-769408287#0_0" pos="25.23" length="53.66" friendlyPos="1"/>
        <access lane="26814346_0" pos="68.29" length="51.48" friendlyPos="1"/>
        <access lane="27087625#1_0" pos="3.41" length="41.64" friendlyPos="1"/>
    </busStop>
    <busStop id="301331956" name="Magnusstraße" lane="143308546#0_0" startPos="89.96" endPos="104.96" friendlyPos="true" lines="162 N60 164 163">
        <access lane="-71028777#0_0" pos="0.00" length="97.10" friendlyPos="1"/>
        <access lane="-71028777#1_0" pos="94.59" length="95.34" friendlyPos="1"/>
        <access lane="142575692#0_0" pos="0.00" length="74.32" friendlyPos="1"/>
        <access lane="71028777#0_0" pos="41.52" length="101.81" friendlyPos="1"/>
        <access lane="71028777#1_0" pos="2.86" length="100.14" friendlyPos="1"/>
    </busStop>
    <busStop id="306982602" name="Magnusstraße" lane="143308542#2_0" startPos="99.75" endPos="114.75" friendlyPos="true" lines="162 163 164 N60">
        <access lane="-71028777#0_0" pos="3.37" length="110.31" friendlyPos="1"/>
        <access lane="-71028777#1_0" pos="97.45" length="111.96" friendlyPos="1"/>
        <access lane="142575692#0_0" pos="0.00" length="90.22" friendlyPos="1"/>
        <access lane="71028777#0_0" pos="38.14" length="115.11" friendlyPos="1"/>
        <access lane="71028777#1_0" pos="0.00" length="116.69" friendlyPos="1"/>
    </busStop>
    <busStop id="361152203" name="S Spindlersfeld" lane="70553241#0_0" startPos="3.82" endPos="18.82" friendlyPos="true" lines="N64 165 N65"/>
    <busStop id="361152205" name="Friedlander Straße" lane="31091960#2_0" startPos="15.61" endPos="30.61" friendlyPos="true" lines="165">
        <access lane="-298150665#0_0" pos="104.81" length="34.07" friendlyPos="1"/>
        <access lane="-447835331#5_0" pos="0.00" length="34.02" friendlyPos="1"/>
        <access lane="-581877040_0" pos="65.71" length="58.61" friendlyPos="1"/>
        <access lane="298150665#0_0" pos="0.00" length="38.65" friendlyPos="1"/>
        <access lane="447835331#5_0" pos="139.36" length="38.60" friendlyPos="1"/>
    </busStop>
    <busStop id="3812676495" name="Otto-Franke-Straße" lane="977639651#0_0" startPos="0.00" endPos="12.55" friendlyPos="true" lines="163 N68"/>
    <busStop id="3834046602" name="Glienicker Weg/Nipkowstraße" lane="190928927#2_0" startPos="22.83" endPos="37.83" friendlyPos="true" lines="164 162">
        <access lane="-26814346_0" pos="24.21" length="24.47" friendlyPos="1"/>
        <access lane="-26814520_0" pos="0.00" length="21.84" friendlyPos="1"/>
        <access lane="26814346_0" pos="44.07" length="19.67" friendlyPos="1"/>
        <access lane="26814520_0" pos="162.71" length="21.35" friendlyPos="1"/>
        <access lane="27087625#1_0" pos="3.41" length="43.57" friendlyPos="1"/>
    </busStop>
    <busStop id="3834046603" name="Zinsgutstraße" lane="113575152#0_0" startPos="26.60" endPos="41.60" friendlyPos="true" lines="164 162">
        <access lane="-229469715#0_0" pos="80.66" length="50.90" friendlyPos="1"/>
        <access lane="-766514746_0" pos="0.00" length="23.01" friendlyPos="1"/>
        <access lane="229469715#0_0" pos="0.00" length="55.55" friendlyPos="1"/>
        <access lane="408709163_0" pos="72.17" length="25.45" friendlyPos="1"/>
        <access lane="822171437_0" pos="61.50" length="65.40" friendlyPos="1"/>
    </busStop>
    <busStop id="3834046604" name="Zinsgutstraße" lane="190928927#10_0" startPos="33.86" endPos="48.86" friendlyPos="true" lines="164 162">
        <access lane="-229469715#0_0" pos="80.66" length="30.94" friendlyPos="1"/>
        <access lane="-24160870#0_0" pos="19.56" length="37.87" friendlyPos="1"/>
        <access lane="1014112240_0" pos="0.00" length="33.29" friendlyPos="1"/>
        <access lane="229469715#0_0" pos="0.00" length="28.29" friendlyPos="1"/>
        <access lane="822171437_0" pos="18.02" length="44.69" friendlyPos="1"/>
    </busStop>
    <busStop id="385200819" name="Albert-Einstein-Straße" lane="314415495#6_0" startPos="45.79" endPos="60.79" friendlyPos="true" lines="260"/>
    <busStop id="3892451601" name="Wassermannstraße" lane="147053824#3_0" startPos="5.30" endPos="20.30" friendlyPos="true" lines="N64"/>
    <busStop id="3893875078" name="Otto-Franke-Straße" lane="461514282#1_0" startPos="214.95" endPos="229.95" friendlyPos="true"/>
    <busStop id="4017682630" name="Oberspreestraße/Bundeswehr" lane="363443437_0" startPos="34.46" endPos="49.46" friendlyPos="true" lines="165"/>
    <busStop id="464396487" name="Rudower Chaussee/Wegedornstraße" lane="143308542#0_0" startPos="0.00" endPos="10.79" friendlyPos="true" lines="162 163 164 N60">
        <access lane="122666828_0" pos="92.67" length="106.37" friendlyPos="1"/>
        <access lane="143308560#1_0" pos="0.00" length="108.24" friendlyPos="1"/>
        <access lane="143308587#0_0" pos="0.00" length="91.12" friendlyPos="1"/>
        <access lane="143308590#0_0" pos="39.28" length="72.02" friendlyPos="1"/>
        <access lane="26816541_0" pos="46.23" length="58.62" friendlyPos="1"/>
    </busStop>
    <busStop id="464396566" name="Walther-Nernst-Straße" lane="670062907#0_0" startPos="0.00" endPos="9.35" friendlyPos="true" lines="162 N60 164 163">
        <access lane="-31050360#2_0" pos="49.97" length="58.33" friendlyPos="1"/>
        <access lane="-578659364_0" pos="38.86" length="98.94" friendlyPos="1"/>
        <access lane="31050360#0_0" pos="0.00" length="67.75" friendlyPos="1"/>
        <access lane="578659364_0" pos="0.00" length="94.14" friendlyPos="1"/>
        <access lane="670062909#0_0" pos="90.90" length="75.15" friendlyPos="1"/>
    </busStop>
    <busStop id="464396589" name="Walther-Nernst-Straße" lane="143308542#10_0" startPos="70.62" endPos="85.62" friendlyPos="true" lines="162 163 164 N60">
        <access lane="-31050360#2_0" pos="49.97" length="58.89" friendlyPos="1"/>
        <access lane="-578659364_0" pos="38.86" length="71.38" friendlyPos="1"/>
        <access lane="31050360#0_0" pos="0.00" length="65.95" friendlyPos="1"/>
        <access lane="578659364_0" pos="0.00" length="66.75" friendlyPos="1"/>
        <access lane="670062909#0_0" pos="90.90" length="68.15" friendlyPos="1"/>
    </busStop>
    <busStop id="5836660322" name="S Adlershof" lane="976351540#0_0" startPos="0.00" endPos="12.57" friendlyPos="true" lines="163 164 162"/>
    <busStop id="664208807" name="Wilhelm-Ostwald-Straße" lane="1050686757#2_0" startPos="0.00" endPos="9.58" friendlyPos="true" lines="260"/>
    <busStop id="671564316" name="Rudower Chaussee/Wegedornstraße" lane="143308532#0_0" startPos="2.62" endPos="17.62" friendlyPos="true" lines="163 160">
        <access lane="-174657429_0" pos="0.00" length="116.24" friendlyPos="1"/>
        <access lane="-47770431_0" pos="0.00" length="61.11" friendlyPos="1"/>
        <access lane="143308587#0_0" pos="0.00" length="77.36" friendlyPos="1"/>
        <access lane="143308590#0_0" pos="39.28" length="96.32" friendlyPos="1"/>
        <access lane="47770431_0" pos="47.08" length="60.67" friendlyPos="1"/>
    </busStop>
    <busStop id="766875150" name="Marktplatz Adlershof" lane="178028204#1_0" startPos="61.45" endPos="86.45" friendlyPos="true"/>
    <busStop id="8058787291" name="S Adlershof" lane="976351540#0_0" startPos="0.00" endPos="12.57" friendlyPos="true" lines="N64 N68 N60"/>
    <busStop id="8176926617" name="S Adlershof" lane="976351540#0_0" startPos="0.00" endPos="12.57" friendlyPos="true" lines="N64"/>
    <busStop id="837696418" name="James-Franck-Straße" lane="143308532#3_0" startPos="37.37" endPos="52.37" friendlyPos="true" lines="163 160">
        <access lane="-142575725#2_0" pos="24.07" length="64.42" friendlyPos="1"/>
        <access lane="-708546340_0" pos="0.00" length="25.53" friendlyPos="1"/>
        <access lane="-708546341_0" pos="0.00" length="47.13" friendlyPos="1"/>
        <access lane="708546340_0" pos="24.72" length="23.74" friendlyPos="1"/>
        <access lane="708546341_0" pos="24.51" length="51.40" friendlyPos="1"/>
    </busStop>
    <busStop id="837696524" name="James-Franck-Straße" lane="46039050#2_0" startPos="38.05" endPos="53.05" friendlyPos="true" lines="160 163">
        <access lane="-1125710845_0" pos="0.00" length="70.71" friendlyPos="1"/>
        <access lane="-738309524_0" pos="0.00" length="100.85" friendlyPos="1"/>
        <access lane="1125710845_0" pos="32.78" length="75.21" friendlyPos="1"/>
        <access lane="1130887422#2_0" pos="0.00" length="100.20" friendlyPos="1"/>
        <access lane="143308562#3_0" pos="70.61" length="102.79" friendlyPos="1"/>
    </busStop>
    <busStop id="945142241" name="Am Studio/Köpenicker Straße" lane="1050686755#1_0" startPos="29.90" endPos="44.90" friendlyPos="true" lines="260"/>
</additional>
